** ***************************************************************************
**   Written by : Femap
**   Version    : 11.4.0
**   From Model : 
**   Date       : Tue Oct 16 08:24:22 2018
** ***************************************************************************
** 
*HEADING
ABAQUS Static Analysis Set
*NODE, NSET=GLOBAL
       1,        -0.5,        -0.5,          2.
       2,          0.,        -0.5,          2.
       3,         0.5,        -0.5,          2.
       4,         0.5,          0.,          2.
       5,         0.5,         0.5,          2.
       6,          0.,         0.5,          2.
       7,        -0.5,         0.5,          2.
       8,        -0.5,          0.,          2.
       9,          0.,          0.,          2.
      10,         0.5,        -0.5,          0.
      11,         0.5,        -0.5,         0.5
      12,         0.5,        -0.5,          1.
      13,         0.5,        -0.5,         1.5
      14,        -0.5,        -0.5,         1.5
      15,        -0.5,        -0.5,          1.
      16,        -0.5,        -0.5,         0.5
      17,        -0.5,        -0.5,          0.
      18,          0.,        -0.5,          0.
      19,          0.,        -0.5,         0.5
      20,          0.,        -0.5,          1.
** ... 255 like lines cut
*ELEMENT, TYPE=C3D10, ELSET=P1
     81,      4,      5,     26,     55,     79,    136,    166,    185,
            186,    187
     82,      5,      6,     26,     55,     80,    135,    136,    186,
            188,    187
     83,      6,      9,     56,     55,     74,    189,    190,    188,
            191,    192
     84,      4,     39,     57,     55,    164,    193,    194,    185,
            195,    196
     85,      3,      4,     13,     57,     71,    165,     94,    197,
            194,    198
     86,      2,      3,     13,     57,     70,     94,     95,    199,
            197,    198
     87,     13,     39,     58,     57,    161,    200,    201,    198,
            193,    202
     88,      4,     57,      9,     55,    194,    203,     73,    185,
            196,    191
     89,      2,     21,     59,     57,     96,    204,    205,    199,
            206,    207
     90,      1,     14,      8,     59,    108,    182,     67,    208,
            209,    210
** ... 244 like lines cut
*ELSET, ELSET=OUT_CONT, GENERATE
81,212,1
** Femap Property 1 : SOLID Property
*ORIENTATION, NAME=S0, DEFINITION=COORDINATES, SYSTEM=RECTANGULAR
        1.,        0.,        0.,        0.,        1.,        0.
*SOLID SECTION, ELSET=P1, MATERIAL=M1, ORIENTATION=S0
** Femap Material 1 : ISOTROPIC Material
*MATERIAL, NAME=M1
*ELASTIC, TYPE=ISOTROPIC
        1.,       0.3,        0.
** Load Step 1 -------------------------------------------------------
*STEP, INC=100
Untitled
*STATIC

*NODE PRINT, FREQUENCY=1
    U,
*FILE FORMAT, ASCII
*NODE FILE, FREQUENCY=1
    U,
*NODE FILE, FREQUENCY=1
   CF,
*NODE FILE, FREQUENCY=1
   RF,
*EL PRINT, ELSET=OUT_CONT,FREQUENCY=1, POSITION=CENTROIDAL
    S,
 SINV,
*EL PRINT, ELSET=OUT_CONT,FREQUENCY=1,	POSITION=NODES
    S,
 SINV,
*EL FILE, ELSET=OUT_CONT,FREQUENCY=1, POSITION=CENTROIDAL
    S,
 SINV,
*EL FILE, ELSET=OUT_CONT,FREQUENCY=1,	POSITION=NODES
    S,
 SINV,
*EL PRINT, ELSET=OUT_CONT,FREQUENCY=1, POSITION=CENTROIDAL
*EL PRINT, ELSET=OUT_CONT,FREQUENCY=1,	POSITION=NODES
*EL FILE, ELSET=OUT_CONT,FREQUENCY=1, POSITION=CENTROIDAL
*EL FILE, ELSET=OUT_CONT,FREQUENCY=1,	POSITION=NODES
*END STEP
