*HEADING
ABAQUS Static Analysis Set
*NODE, NSET=GLOBAL
       1,          0.,          0.,          0.
       2,        0.05,          0.,          0.
       3,         0.1,          0.,          0.
       4,        0.15,          0.,          0.
       5,         0.2,          0.,          0.
       6,        0.25,          0.,          0.
       7,         0.3,          0.,          0.
       8,        0.35,          0.,          0.
       9,         0.4,          0.,          0.
      10,        0.45,          0.,          0.
      11,         0.5,          0.,          0.
      12,        0.55,          0.,          0.
      13,         0.6,          0.,          0.
      14,        0.65,          0.,          0.
      15,         0.7,          0.,          0.
      16,        0.75,          0.,          0.
      17,         0.8,          0.,          0.
      18,        0.85,          0.,          0.
      19,         0.9,          0.,          0.
      20,        0.95,          0.,          0.
** ... 421 like lines cut
** NODES = 4
** TYPE=U1 (plane strain)
** IPROPERTIES = 9 (number of state vars per integration point)
** PROPERTIES = E,nu (2 properties for linear elasticity)
** COORDINATES = 2 at each node
** VARIABLES = 4*9 = 36 (total number of state vars per ELEMENT)
** UNSYMM = use unsymmetric solver for F-bar method
** All dofs are displacements 1,2
*User Element,Nodes=4,Type=U1,Iproperties=1,Properties=2,Coordinates=2,Variables=36,Unsymm
1,2
*ELEMENT, TYPE=U1, ELSET=user_elements
      1,      1,      2,     81,     80
      2,      2,      3,     82,     81
      3,      3,      4,     83,     82
      4,      4,      5,     84,     83
      5,      5,      6,     85,     84
      6,      6,      7,     86,     85
      7,      7,      8,     87,     86
      8,      8,      9,     88,     87
      9,      9,     10,     89,     88
     10,     10,     11,     90,     89
     11,     11,     12,     91,     90
     12,     12,     13,     92,     91
     13,     13,     14,     93,     92
     14,     14,     15,     94,     93
     15,     15,     16,     95,     94
     16,     16,     17,     96,     95
     17,     17,     18,     97,     96
     18,     18,     19,     98,     97
     19,     19,     20,     99,     98
     20,     20,     21,     22,     99
** ... 380 like lines cut
*Element, type=CPE4, elset=dummy_elements
10001,1,2,81,80
10002,2,3,82,81
10003,3,4,83,82
10004,4,5,84,83
10005,5,6,85,84
10006,6,7,86,85
10007,7,8,87,86
10008,8,9,88,87
10009,9,10,89,88
10010,10,11,90,89
10011,11,12,91,90
10012,12,13,92,91
10013,13,14,93,92
10014,14,15,94,93
10015,15,16,95,94
10016,16,17,96,95
10017,17,18,97,96
10018,18,19,98,97
10019,19,20,99,98
10020,20,21,22,99
** ... 380 like lines cut
************************************************************************
**			NODE GROUPS
************************************************************************
** Femap Group 1 : left_nodes
*NSET, NSET=Gleft_nodes
1,61,62,63,64,65,66,67,68,69
70,71,72,73,74,75,76,77,78,79
80
** Femap Group 2 : right_nodes
*NSET, NSET=Gright_nodes_A
22,23,24,25,26,27,28,29,30,31
32,33,34,35,36,37,38,39,40
** Femap Group 3 : right_nodes_B
*NSET, NSET=Gright_nodes_B
21,41
************************************************************************
**			MATERIAL DEFINITION
************************************************************************
**
** Material properties for the real material
**
** properties are: 
** PROPS[0] = lambda (K)
** PROPS[1] = mu (G)
** JPROPS[0] = 9 (number of state variables per integration point)
** lambda/mu = 2 --> poisson ~ 0.3333
** lambda/mu = 1000 --> poisson ~ 0.4995
** nu = (lambda/mu)/(2*(lambda/mu + 1))
*uel property,elset=user_elements
1.e4,1.0,9
**
** Material properties for the dummy sections
**
*Solid section, elset=dummy_elements, material=Material-dummy
1.0
*Material, name=Material-dummy
*Elastic
1.e-20,0.
**
****************************************
*STEP, UNSYMM=YES, NLGEOM=YES, INC=50000
****************************************
*STATIC
0.01, 1.0, 1.e-8,
*BOUNDARY
    1,    1
    1,    2
   61,    1
   62,    1
   63,    1
   64,    1
   65,    1
   66,    1
   67,    1
   68,    1
   69,    1
   70,    1
   71,    1
   72,    1
   73,    1
   74,    1
   75,    1
   76,    1
   77,    1
   78,    1
   79,    1
   80,    1
**** Apply displacement at nodes 2,3
***BOUNDARY
**2, 1,, 1.0 
**3, 1,, 1.0 
**
*CLOAD
Gright_nodes_A, 1, 0.1
Gright_nodes_B, 1, 0.05
*OUTPUT, FIELD, FREQ=1
*Node Output, nset=GLOBAL
 U
***Element Output
** S,E
*OUTPUT, HISTORY, FREQ=1
*Node Output, nset=Gleft_nodes
RF
*END STEP
