*HEADING
ABAQUS Static Analysis Set
*NODE, NSET=GLOBAL
       1,          0.,          0.,          0.
       2,          1.,          0.,          0.
       3,          1.,          1.,          0.
       4,          0.,          1.,          0.
** NODES = 4
** TYPE=U1 (plane strain)
** IPROPERTIES = 10 (number of state variables PER integration point)
** PROPERTIES = E,nu,sigmay0,H (4 properties for elastic plastic with isotropic hardening)
** COORDINATES = 2 at each node
** VARIABLES = 4x9+4 = 36+4=40 (elastic strain tensor plus plastic multiplier for all integration points)
** UNSYMM = use unsymmetric solver 
** All dofs are displacements 1,2
*User Element,Nodes=4,Type=U1,Iproperties=1,Properties=4,Coordinates=2,Variables=40,Unsymm
1,2
*ELEMENT, TYPE=U1
      1,      1,      2,      3,      4
*Elset, elset=user_elements, generate
1,1,1
**
** Make the dummy mesh used for visualization.  These dummy elements
**  use the same nodes as the real mesh, but note the offset in element
**  numbering of 10000, that shows up again in the UVARM subroutine.
**
*Element, type=CPE4
 10001,      1,      2,      3,      4
*Elset, elset=dummy_elements, generate
10001,10001,1
************************************************************************
**			MATERIAL DEFINITION
************************************************************************
**
** Material properties for the real material
**
** properties are: 
** PROPS[0] = E
** PROPS[1] = nu
** PROPS[2] = sigmay0
** PROPS[3] = H
** JPROPS[0] = 10 (state vars per integration points)
*uel property,elset=user_elements
1.0,0.3,0.01,0.1,10
**0.0,0.0,1.e9,0.1,10
**
** Material properties for the dummy sections
**
*Solid section, elset=dummy_elements, material=Material-dummy
*Material, name=Material-dummy
*Elastic
1.e-20,1.e-20
***Elastic
**1.0,0.3
***Plastic
**0.01,0.0
**0.11,1.0
**
*BOUNDARY
1, 1, 2, 0.0
4, 1, 1, 0.0
**2, 2, 2, 0.0 
**3, 2, 2, 0.0 
****************************************
*STEP, INC=20000
****************************************
*STATIC
0.1, 1.0, 0.1, 0.1
**
**** Apply displacement at nodes 2,3
***BOUNDARY
**2, 1,, 0.1 
**3, 1,, 0.1 
**
*CLOAD
2, 1, 0.05 
3, 1, 0.05 
*OUTPUT, FIELD, FREQ=1
*Node Output, nset=GLOBAL
 U
***Element Output
** S,E
*END STEP
